24
24
Au            0.704031            5.289926           -0.571759
Au            1.409756            2.520220           -0.893917
Au            1.286753            2.862395            2.275094
Au            1.980165           -1.151974           -0.142470
Au           -1.011202           -0.695426           -1.102009
Au           -0.007731            0.614648            2.088500
Au           -1.006373            2.767279           -1.051718
Au           -3.239070            0.711640            0.558507
H             1.414938            8.216473            0.885648
 H             1.862100            1.284475            2.959934
 H             2.317323           -2.011103            3.214624
 H             3.654306            0.826735           -1.447953
 H             3.322555            3.833310            0.082865
 H             0.166592           -1.560125           -3.196226
 H            -1.526977            5.486392           -0.973765
 H            -4.953363            0.533218            1.209893
 S             0.168374           -2.464227           -2.418252
 S             0.310723            1.175504            3.575035
 S             0.162189            6.960285           -0.975699
 S             1.698394           -1.790390            2.369373
 S             2.269864            4.368631            1.504773
 S             3.304734            1.541831           -0.306656
 S            -1.558711            3.614485           -2.149339
 S            -4.892752           -0.563457           -0.024409