24
PDB File
Au       0.940928811    4.750010918   -0.489711577                    
Au      -0.460706770    0.892496236    1.585350424                    
Au       1.633717054    3.258516173    2.494367321                    
Au       2.660852618   -0.522548009    0.507995412                    
Au       1.479901114    2.041070262   -0.265289935                    
Au      -0.372797092   -0.389052332   -0.899410510                    
Au      -1.270588687    2.309688272   -0.723088973                    
Au      -2.816627297    0.263440751    0.249991204                    
H        1.537748668    0.636368943    3.616977883                     
H        3.586125297    4.262725320    0.665601790                     
H        2.525964182   -1.804374640    2.982482061                     
H        3.163725818    0.614545825   -2.075970466                     
H        1.343533986    7.535632671    0.260315515                     
H       -0.231697938   -1.487893779   -3.468807303                     
H       -1.733600097    5.123357220   -1.384967668                     
H       -5.059323910   -0.101913918    1.856523943                     
S        0.528304796    1.556524599    3.698236205                     
S        2.604324806    5.015344435    1.250336866                     
S        1.732027581   -2.105549640    1.907526717                     
S        3.641449526    1.135424014   -0.902955101                     
S        0.543612844    7.132180945   -0.770226986                     
S        0.485346419   -1.952750467   -2.399653370                     
S       -0.879754816    4.269203367   -2.028782564                     
S       -5.062466913   -0.238447166    0.494159112                     

