24

Au       1.563335362    5.298400935   -0.579563259
Au       1.961054257    1.569275607   -0.711474757
Au       0.983489522    3.845389217    1.872873695
Au       3.131860482   -0.992644119    0.729707801
Au       0.184148658   -0.483586248   -0.583520910
Au       0.099817856    1.114564759    0.950147547
Au      -0.753404630    1.679880728   -0.258455198
Au      -3.021603838    0.867997244    0.196305550
H        1.665709087    7.022156185    0.343965285
H        0.851506338    0.101702176    3.171299898
H        2.208261921   -1.816815755    3.313855573
H        3.803467786    0.373035605   -2.297120014
H        2.958282958    4.273860473    0.688224309
H        0.155280942   -0.856337210   -3.554698108
H       -1.514070942    5.522125489   -1.445225422
H       -4.694084082    0.258454885    1.762725521
S        0.872325299   -1.321193898   -2.485544175
S       -0.157937534    1.021857832    3.252558220
S        0.865787945    6.618704459   -0.686577216
S        1.414325320   -2.117990755    2.238900229
S        1.976482467    5.026479588    1.272959385
S        4.281191494    0.893913794   -1.124104649
S       -0.660225661    4.667971636   -2.089040318
S       -4.697227085    0.121921637    0.400360690
