20
0th
   Au   3.189  -1.016  -0.615
   Au  -2.179   1.840  -2.884
   Au  -4.167  -0.142  -0.349
   Au  -1.520  -2.369   2.037
   Au  -0.275  -0.887  -1.598
   Au  -0.735   1.235   3.882
   Au  -1.142  -3.928  -0.802
   Au   0.955   2.348   0.929
   Au   1.134   1.933  -2.236
   Au   1.156  -3.039   0.812
   Au   3.174  -1.855   2.207
   Au  -2.899   2.539   1.772
   Au   2.103  -1.452  -3.289
   Au   3.363   1.310   2.404
   Au  -1.586   3.730  -0.855
   Au   0.798  -1.331   3.943
   Au  -1.063   0.185   0.948
   Au   3.671   1.810  -0.570
   Au  -2.955  -1.171  -2.952
   Au  -0.495   0.093  -4.251
