32

Cu       -0.361558    2.611511    1.864062  
Cu       -0.693824   -0.918500    3.013547  
Cu        2.733091    1.708267    0.000000  
Cu        0.693824    0.918500    3.013547  
Cu        2.401421   -1.817743   -1.150889  
Cu       -0.899485   -3.099857    0.000000  
Cu       -2.401421    1.817743    1.150889  
Cu        0.899485    3.099857    0.000000  
Cu        2.608540    0.361691   -1.863133  
Cu        0.361558   -2.611511   -1.864062  
Cu       -2.733091   -1.708267    0.000000  
Cu       -2.401421    1.817743   -1.150889  
Cu       -0.361558    2.611511   -1.864062  
Cu        0.693824    0.918500   -3.013547  
Cu       -0.693824   -0.918500   -3.013547  
Cu       -2.608540   -0.361691   -1.863133  
Cu       -1.152872    2.980654    0.000000  
Cu        1.152872   -2.980654    0.000000  
Cu       -1.339385    1.014420   -2.718146  
Cu        1.339385   -1.014420    2.718146  
C        -1.339385    1.014420    2.718146  
C         1.339385   -1.014420   -2.718146  
C        -1.639696   -2.168024   -1.680548  
C         1.639696    2.168024    1.680548  
C         3.179396   -0.300558    0.000000  
C        -3.179396    0.300558    0.000000  
C        -1.639696   -2.168024    1.680548  
C         1.639696    2.168024   -1.680548  
C         2.608540    0.361691    1.863133  
C         2.401421   -1.817743    1.150889  
C        -2.608540   -0.361691    1.863133  
C         0.361558   -2.611511    1.864062  


